@<TRIPOS>MOLECULE
BUT
   14    13     1     0     0
SMALL
bcc


@<TRIPOS>ATOM
      1 C            0.0000     0.0000     0.0000 c3         2 BUT      -0.092100
      2 H           -0.9150    -0.5750    -0.1440 hc         2 BUT       0.032367
      3 H1           0.8640    -0.6490    -0.1440 hc         2 BUT       0.032367
      4 H2           0.0340     0.8160    -0.7220 hc         2 BUT       0.032367
      5 C1           0.0240     0.5710     1.4130 c3         2 BUT      -0.080400
      6 H3           0.9390     1.1460     1.5580 hc         2 BUT       0.038700
      7 C2          -0.0240    -0.5700     2.4230 c3         2 BUT      -0.080400
      8 H4          -0.8400     1.2200     1.5580 hc         2 BUT       0.038700
      9 H5          -0.9380    -1.1460     2.2790 hc         2 BUT       0.038700
     10 H6           0.8400    -1.2190     2.2780 hc         2 BUT       0.038700
     11 C3           0.0000    -0.0000     3.8360 c3         2 BUT      -0.092100
     12 H7          -0.8640     0.6490     3.9810 hc         2 BUT       0.032367
     13 H8          -0.0340    -0.8160     4.5580 hc         2 BUT       0.032367
     14 H9           0.9150     0.5750     3.9810 hc         2 BUT       0.032367
@<TRIPOS>BOND
     1     1     2 1   
     2     1     3 1   
     3     1     4 1   
     4     1     5 1   
     5     5     6 1   
     6     5     7 1   
     7     5     8 1   
     8     7     9 1   
     9     7    10 1   
    10     7    11 1   
    11    11    12 1   
    12    11    13 1   
    13    11    14 1   
@<TRIPOS>SUBSTRUCTURE
     1 BUT         1 TEMP              0 ****  ****    0 ROOT
