@<TRIPOS>MOLECULE
BUT
   14    13     1     0     0
SMALL
No Charge or Current Charge


@<TRIPOS>ATOM
      1 C           -0.9540    -0.2200     2.4760 C.3        1 BUT      -0.092631
      2 H           -1.8820    -0.7920     2.4680 H          1 BUT       0.032180
      3 H1          -0.1050    -0.9040     2.4680 H          1 BUT       0.032180
      4 H2          -0.9140     0.4190     1.5940 H          1 BUT       0.032180
      5 C1          -0.8990     0.6430     3.7310 C.3        1 BUT      -0.080864
      6 H3           0.0290     1.2150     3.7400 H          1 BUT       0.038477
      7 C2          -0.9550    -0.2510     4.9650 C.3        1 BUT      -0.080864
      8 H4          -1.7470     1.3270     3.7390 H          1 BUT       0.038477
      9 H5          -1.8830    -0.8240     4.9580 H          1 BUT       0.038477
     10 H6          -0.1060    -0.9350     4.9570 H          1 BUT       0.038477
     11 C3          -0.9000     0.6110     6.2210 C.3        1 BUT      -0.092631
     12 H7          -1.7490     1.2950     6.2290 H          1 BUT       0.032180
     13 H8          -0.9400    -0.0280     7.1020 H          1 BUT       0.032180
     14 H9           0.0280     1.1830     6.2280 H          1 BUT       0.032182
@<TRIPOS>BOND
     1     1     2 1   
     2     1     3 1   
     3     1     4 1   
     4     1     5 1   
     5     5     6 1   
     6     5     7 1   
     7     5     8 1   
     8     7     9 1   
     9     7    10 1   
    10     7    11 1   
    11    11    12 1   
    12    11    13 1   
    13    11    14 1   
@<TRIPOS>SUBSTRUCTURE
     1 BUT         1 TEMP              0 ****  ****    0 ROOT
