@<TRIPOS>MOLECULE
CB6
  108   126     1     0     0
SMALL
bcc


@<TRIPOS>ATOM
      1 C          -3.2690   -5.0770   -1.2720 c3        1 CB6      0.239100
      2 C1         -4.5680   -4.2640   -1.2730 c3        1 CB6      0.239100
      3 N          -2.6190   -4.6440   -2.5070  n        1 CB6     -0.501300
      4 N1         -2.6370   -4.6700   -0.0190  n        1 CB6     -0.501300
      5 H          -3.4290   -6.1650   -1.2850 h2        1 CB6      0.075700
      6 H1         -5.4770   -4.8830   -1.2860 h2        1 CB6      0.075700
      7 N2         -4.4620   -3.4910   -2.5080  n        1 CB6     -0.501300
      8 N3         -4.4790   -3.5170   -0.0200  n        1 CB6     -0.501300
      9 C2         -5.5960   -2.6960   -2.9830 c3        1 CB6      0.288400
     10 C3         -5.6200   -2.7310    0.4550 c3        1 CB6      0.288400
     11 C4         -3.3600   -3.7750    0.6820  c        1 CB6      0.804500
     12 C5         -3.3320   -3.7350   -3.2000  c        1 CB6      0.804500
     13 O          -3.1190   -3.3910    1.8080  o        1 CB6     -0.576500
     14 O1         -3.0760   -3.3270   -4.3140  o        1 CB6     -0.576500
     15 H2         -5.5570   -2.6680   -4.0840 h2        1 CB6      0.085700
     16 H3         -6.5250   -3.1910   -2.6650 h2        1 CB6      0.085700
     17 H4         -5.5970   -2.7260    1.5570 h2        1 CB6      0.085700
     18 H5         -6.5450   -3.2200    0.1140 h2        1 CB6      0.085700
     19 C6          1.7960   -4.4930   -1.2300 c3        1 CB6      0.239100
     20 C7          0.4420   -5.2100   -1.2470 c3        1 CB6      0.239100
     21 N4          1.7620   -3.7140   -2.4670  n        1 CB6     -0.501300
     22 N5          1.7450   -3.7400    0.0220  n        1 CB6     -0.501300
     23 H6          2.6590   -5.1760   -1.2310 h2        1 CB6      0.075700
     24 H7          0.5230   -6.3070   -1.2580 h2        1 CB6      0.075700
     25 N6         -0.1580   -4.7320   -2.4910  n        1 CB6     -0.501300
     26 N7         -0.1760   -4.7580   -0.0030  n        1 CB6     -0.501300
     27 C8         -1.4080   -5.3170   -2.9820 c3        1 CB6      0.288400
     28 C9         -1.4320   -5.3520    0.4580 c3        1 CB6      0.288400
     29 C10         0.6000   -3.9180    0.7090  c        1 CB6      0.804500
     30 C11         0.6270   -3.8770   -3.1730  c        1 CB6      0.804500
     31 O2          0.3730   -3.5160    1.8310  o        1 CB6     -0.576500
     32 O3          0.4160   -3.4520   -4.2900  o        1 CB6     -0.576500
     33 H8         -1.3990   -5.2690   -4.0820 h2        1 CB6      0.085700
     34 H9         -1.4480   -6.3690   -2.6640 h2        1 CB6      0.085700
     35 H10        -1.4390   -5.3280    1.5590 h2        1 CB6      0.085700
     36 H11        -1.4680   -6.3980    0.1180 h2        1 CB6      0.085700
     37 C12         3.8240    0.1850   -1.1670 c3        1 CB6      0.239100
     38 C13         3.7690   -1.3460   -1.1840 c3        1 CB6      0.239100
     39 N8          3.1490    0.5440   -2.4130  n        1 CB6     -0.501300
     40 N9          3.1310    0.5180    0.0760  n        1 CB6     -0.501300
     41 H12         4.8470    0.5910   -1.1560 h2        1 CB6      0.075700
     42 H13         4.7590   -1.8250   -1.1820 h2        1 CB6      0.075700
     43 N10         3.0700   -1.6280   -2.4360  n        1 CB6     -0.501300
     44 N11         3.0520   -1.6540    0.0520  n        1 CB6     -0.501300
     45 C14         2.9560   -3.0030   -2.9270 c3        1 CB6      0.288400
     46 C15         2.9320   -3.0390    0.5130 c3        1 CB6      0.288400
     47 C16         2.7030   -0.5610    0.7580  c        1 CB6      0.804500
     48 C17         2.7310   -0.5210   -3.1240  c        1 CB6      0.804500
     49 O4          2.2280   -0.5560    1.8750  o        1 CB6     -0.576500
     50 O5          2.2710   -0.4920   -4.2460  o        1 CB6     -0.576500
     51 H14         2.9340   -2.9720   -4.0270 h2        1 CB6      0.085700
     52 H15         3.8430   -3.5640   -2.5970 h2        1 CB6      0.085700
     53 H16         2.8940   -3.0310    1.6140 h2        1 CB6      0.085700
     54 H17         3.8240   -3.5930    0.1840 h2        1 CB6      0.085700
     55 C18         0.7850    4.2800   -1.1460 c3        1 CB6      0.239100
     56 C19         2.0840    3.4670   -1.1450 c3        1 CB6      0.239100
     57 N12         0.1530    3.8730   -2.3990  n        1 CB6     -0.501300
     58 N13         0.1350    3.8470    0.0890  n        1 CB6     -0.501300
     59 H18         0.9450    5.3680   -1.1340 h2        1 CB6      0.075700
     60 H19         2.9940    4.0860   -1.1330 h2        1 CB6      0.075700
     61 N14         1.9950    2.7200   -2.3980  n        1 CB6     -0.501300
     62 N15         1.9780    2.6940    0.0900  n        1 CB6     -0.501300
     63 C20         3.1360    1.9340   -2.8740 c3        1 CB6      0.288400
     64 C21         3.1110    1.8980    0.5650 c3        1 CB6      0.288400
     65 C22         0.8480    2.9380    0.7820  c        1 CB6      0.804500
     66 C23         0.8750    2.9780   -3.1000  c        1 CB6      0.804500
     67 O6          0.5920    2.5300    1.8960  o        1 CB6     -0.576500
     68 O7          0.6350    2.5940   -4.2260  o        1 CB6     -0.576500
     69 H20         3.1120    1.9290   -3.9750 h2        1 CB6      0.085700
     70 H21         4.0600    2.4220   -2.5320 h2        1 CB6      0.085700
     71 H22         3.0720    1.8700    1.6660 h2        1 CB6      0.085700
     72 H23         4.0410    2.3930    0.2470 h2        1 CB6      0.085700
     73 C24        -4.2800    3.6950   -1.1880 c3        1 CB6      0.239100
     74 C25        -2.9260    4.4130   -1.1710 c3        1 CB6      0.239100
     75 N16        -4.2280    2.9430   -2.4400  n        1 CB6     -0.501300
     76 N17        -4.2460    2.9170    0.0490  n        1 CB6     -0.501300
     77 H24        -5.1430    4.3780   -1.1870 h2        1 CB6      0.075700
     78 H25        -3.0080    5.5100   -1.1600 h2        1 CB6      0.075700
     79 N18        -2.3080    3.9610   -2.4160  n        1 CB6     -0.501300
     80 N19        -2.3250    3.9350    0.0730  n        1 CB6     -0.501300
     81 C26        -1.0520    4.5560   -2.8760 c3        1 CB6      0.288400
     82 C27        -1.0760    4.5200    0.5630 c3        1 CB6      0.288400
     83 C28        -3.1110    3.0800    0.7550  c        1 CB6      0.804500
     84 C29        -3.0830    3.1200   -3.1270  c        1 CB6      0.804500
     85 O8         -2.8990    2.6550    1.8720  o        1 CB6     -0.576500
     86 O9         -2.8560    2.7190   -4.2490  o        1 CB6     -0.576500
     87 H26        -1.0450    4.5310   -3.9770 h2        1 CB6      0.085700
     88 H27        -1.0160    5.6010   -2.5360 h2        1 CB6      0.085700
     89 H28        -1.0850    4.4720    1.6640 h2        1 CB6      0.085700
     90 H29        -1.0360    5.5720    0.2450 h2        1 CB6      0.085700
     91 C30        -6.3090   -0.9830   -1.2510 c3        1 CB6      0.239100
     92 C31        -6.2530    0.5490   -1.2350 c3        1 CB6      0.239100
     93 N20        -5.6160   -1.3160   -2.4940  n        1 CB6     -0.501300
     94 N21        -5.6340   -1.3420   -0.0050  n        1 CB6     -0.501300
     95 H30        -7.3320   -1.3870   -1.2620 h2        1 CB6      0.075700
     96 H31        -7.2430    1.0280   -1.2370 h2        1 CB6      0.075700
     97 N22        -5.5360    0.8560   -2.4710  n        1 CB6     -0.501300
     98 N23        -5.5530    0.8300    0.0180  n        1 CB6     -0.501300
     99 C32        -5.4160    2.2410   -2.9310 c3        1 CB6      0.288400
    100 C33        -5.4400    2.2050    0.5090 c3        1 CB6      0.288400
    101 C34        -5.2150   -0.2770    0.7050  c        1 CB6      0.804500
    102 C35        -5.1880   -0.2370   -3.1760  c        1 CB6      0.804500
    103 O10        -4.7550   -0.3060    1.8280  o        1 CB6     -0.576500
    104 O11        -4.7120   -0.2420   -4.2930  o        1 CB6     -0.576500
    105 H32        -5.3770    2.2330   -4.0320 h2        1 CB6      0.085700
    106 H33        -6.3070    2.7950   -2.6030 h2        1 CB6      0.085700
    107 H34        -5.4170    2.1750    1.6090 h2        1 CB6      0.085700
    108 H35        -6.3270    2.7660    0.1790 h2        1 CB6      0.085700
@<TRIPOS>BOND
     1     1     2 1   
     2     1     3 1   
     3     1     4 1   
     4     1     5 1   
     5     2     6 1   
     6     2     7 1   
     7     2     8 1   
     8     3    12 1   
     9     3    27 1   
    10     4    11 1   
    11     4    28 1   
    12     7     9 1   
    13     7    12 1   
    14     8    10 1   
    15     8    11 1   
    16     9    15 1   
    17     9    16 1   
    18     9    93 1   
    19    10    17 1   
    20    10    18 1   
    21    10    94 1   
    22    11    13 2   
    23    12    14 2   
    24    19    20 1   
    25    19    21 1   
    26    19    22 1   
    27    19    23 1   
    28    20    24 1   
    29    20    25 1   
    30    20    26 1   
    31    21    30 1   
    32    21    45 1   
    33    22    29 1   
    34    22    46 1   
    35    25    27 1   
    36    25    30 1   
    37    26    28 1   
    38    26    29 1   
    39    27    33 1   
    40    27    34 1   
    41    28    35 1   
    42    28    36 1   
    43    29    31 2   
    44    30    32 2   
    45    37    38 1   
    46    37    39 1   
    47    37    40 1   
    48    37    41 1   
    49    38    42 1   
    50    38    43 1   
    51    38    44 1   
    52    39    48 1   
    53    39    63 1   
    54    40    47 1   
    55    40    64 1   
    56    43    45 1   
    57    43    48 1   
    58    44    46 1   
    59    44    47 1   
    60    45    51 1   
    61    45    52 1   
    62    46    53 1   
    63    46    54 1   
    64    47    49 2   
    65    48    50 2   
    66    55    56 1   
    67    55    57 1   
    68    55    58 1   
    69    55    59 1   
    70    56    60 1   
    71    56    61 1   
    72    56    62 1   
    73    57    66 1   
    74    57    81 1   
    75    58    65 1   
    76    58    82 1   
    77    61    63 1   
    78    61    66 1   
    79    62    64 1   
    80    62    65 1   
    81    63    69 1   
    82    63    70 1   
    83    64    71 1   
    84    64    72 1   
    85    65    67 2   
    86    66    68 2   
    87    73    74 1   
    88    73    75 1   
    89    73    76 1   
    90    73    77 1   
    91    74    78 1   
    92    74    79 1   
    93    74    80 1   
    94    75    84 1   
    95    75    99 1   
    96    76    83 1   
    97    76   100 1   
    98    79    81 1   
    99    79    84 1   
   100    80    82 1   
   101    80    83 1   
   102    81    87 1   
   103    81    88 1   
   104    82    89 1   
   105    82    90 1   
   106    83    85 2   
   107    84    86 2   
   108    91    92 1   
   109    91    93 1   
   110    91    94 1   
   111    91    95 1   
   112    92    96 1   
   113    92    97 1   
   114    92    98 1   
   115    93   102 1   
   116    94   101 1   
   117    97    99 1   
   118    97   102 1   
   119    98   100 1   
   120    98   101 1   
   121    99   105 1   
   122    99   106 1   
   123   100   107 1   
   124   100   108 1   
   125   101   103 2   
   126   102   104 2   
@<TRIPOS>SUBSTRUCTURE
     1 CB6         1 TEMP              0 ****  ****    0 ROOT
