@<TRIPOS>MOLECULE
CB6
  108   126     1     0     0
SMALL
bcc


@<TRIPOS>ATOM
      1 C           -0.5190     4.9750     1.8350 c3         1 CB6       0.239100
      2 C1           1.0120     4.9100     1.8350 c3         1 CB6       0.239100
      3 N           -0.8690     4.2930     0.5910 n          1 CB6      -0.501300
      4 N1          -0.8680     4.2930     3.0790 n          1 CB6      -0.501300
      5 H           -0.9170     6.0000     1.8350 h2         1 CB6       0.075700
      6 H1           1.4970     5.8980     1.8350 h2         1 CB6       0.075700
      7 N2           1.3030     4.2020     0.5910 n          1 CB6      -0.501300
      8 N3           1.3030     4.2010     3.0790 n          1 CB6      -0.501300
      9 C2           2.6830     4.0770     0.1160 c3         1 CB6       0.288400
     10 C3           2.6830     4.0760     3.5540 c3         1 CB6       0.288400
     11 C4           0.2020     3.8640     3.7760 c          1 CB6       0.804500
     12 C5           0.2010     3.8640    -0.1060 c          1 CB6       0.804500
     13 O            0.1810     3.3970     4.8960 o          1 CB6      -0.576500
     14 O1           0.1810     3.3970    -1.2260 o          1 CB6      -0.576500
     15 H2           2.6640     4.0470    -0.9860 h2         1 CB6       0.085658
     16 H3           3.2450     4.9620     0.4460 h2         1 CB6       0.085658
     17 H4           2.6640     4.0460     4.6560 h2         1 CB6       0.085658
     18 H5           3.2460     4.9630     3.2250 h2         1 CB6       0.085658
     19 C6          -4.6330     1.9640     1.8360 c3         1 CB6       0.239100
     20 C7          -3.8100     3.2560     1.8360 c3         1 CB6       0.239100
     21 N4          -4.2170     1.3190     0.5910 n          1 CB6      -0.501300
     22 N5          -4.2180     1.3180     3.0800 n          1 CB6      -0.501300
     23 H6          -5.7210     2.1310     1.8360 h2         1 CB6       0.075700
     24 H7          -4.4230     4.1700     1.8360 h2         1 CB6       0.075700
     25 N6          -3.0510     3.1530     0.5910 n          1 CB6      -0.501300
     26 N7          -3.0510     3.1530     3.0790 n          1 CB6      -0.501300
     27 C8          -2.2540     4.2850     0.1150 c3         1 CB6       0.288400
     28 C9          -2.2530     4.2840     3.5550 c3         1 CB6       0.288400
     29 C10         -3.3110     2.0300     3.7770 c          1 CB6       0.804500
     30 C11         -3.3110     2.0300    -0.1050 c          1 CB6       0.804500
     31 O2          -2.9160     1.7790     4.8960 o          1 CB6      -0.576500
     32 O3          -2.9160     1.7790    -1.2250 o          1 CB6      -0.576500
     33 H8          -2.2370     4.2530    -0.9860 h2         1 CB6       0.085658
     34 H9          -2.7390     5.2160     0.4440 h2         1 CB6       0.085658
     35 H10         -2.2360     4.2530     4.6560 h2         1 CB6       0.085658
     36 H11         -2.7390     5.2160     3.2260 h2         1 CB6       0.085658
     37 C12         -4.0840    -3.1060     1.8350 c3         1 CB6       0.239100
     38 C13         -4.7930    -1.7480     1.8350 c3         1 CB6       0.239100
     39 N8          -3.3180    -3.0690     0.5910 n          1 CB6      -0.501300
     40 N9          -3.3180    -3.0680     3.0800 n          1 CB6      -0.501300
     41 H12         -4.7720    -3.9650     1.8350 h2         1 CB6       0.075700
     42 H13         -5.8900    -1.8210     1.8350 h2         1 CB6       0.075700
     43 N10         -4.3230    -1.1410     0.5910 n          1 CB6      -0.501300
     44 N11         -4.3230    -1.1410     3.0790 n          1 CB6      -0.501300
     45 C14         -4.9030     0.1160     0.1150 c3         1 CB6       0.288400
     46 C15         -4.9040     0.1160     3.5550 c3         1 CB6       0.288400
     47 C16         -3.4800    -1.9280     3.7760 c          1 CB6       0.804500
     48 C17         -3.4810    -1.9270    -0.1060 c          1 CB6       0.804500
     49 O4          -3.0660    -1.7110     4.8960 o          1 CB6      -0.576500
     50 O5          -3.0660    -1.7110    -1.2250 o          1 CB6      -0.576500
     51 H14         -4.8680     0.1140    -0.9850 h2         1 CB6       0.085658
     52 H15         -5.9520     0.1610     0.4450 h2         1 CB6       0.085658
     53 H16         -4.8680     0.1140     4.6560 h2         1 CB6       0.085658
     54 H17         -5.9530     0.1610     3.2260 h2         1 CB6       0.085658
     55 C18          0.5820    -5.1640     1.8350 c3         1 CB6       0.239100
     56 C19         -0.9490    -5.0990     1.8350 c3         1 CB6       0.239100
     57 N12          0.9310    -4.4820     0.5910 n          1 CB6      -0.501300
     58 N13          0.9320    -4.4820     3.0790 n          1 CB6      -0.501300
     59 H18          0.9810    -6.1890     1.8340 h2         1 CB6       0.075700
     60 H19         -1.4340    -6.0870     1.8340 h2         1 CB6       0.075700
     61 N14         -1.2400    -4.3900     0.5910 n          1 CB6      -0.501300
     62 N15         -1.2400    -4.3900     3.0790 n          1 CB6      -0.501300
     63 C20         -2.6200    -4.2650     0.1150 c3         1 CB6       0.288400
     64 C21         -2.6190    -4.2640     3.5540 c3         1 CB6       0.288400
     65 C22         -0.1380    -4.0530     3.7760 c          1 CB6       0.804500
     66 C23         -0.1380    -4.0520    -0.1060 c          1 CB6       0.804500
     67 O6          -0.1180    -3.5850     4.8960 o          1 CB6      -0.576500
     68 O7          -0.1180    -3.5850    -1.2260 o          1 CB6      -0.576500
     69 H20         -2.6000    -4.2350    -0.9860 h2         1 CB6       0.085658
     70 H21         -3.1820    -5.1500     0.4460 h2         1 CB6       0.085658
     71 H22         -2.6000    -4.2340     4.6560 h2         1 CB6       0.085658
     72 H23         -3.1820    -5.1500     3.2250 h2         1 CB6       0.085658
     73 C24          4.6960    -2.1510     1.8350 c3         1 CB6       0.239100
     74 C25          3.8740    -3.4450     1.8350 c3         1 CB6       0.239100
     75 N16          4.2800    -1.5080     0.5900 n          1 CB6      -0.501300
     76 N17          4.2810    -1.5070     3.0790 n          1 CB6      -0.501300
     77 H24          5.7840    -2.3190     1.8350 h2         1 CB6       0.075700
     78 H25          4.4870    -4.3580     1.8350 h2         1 CB6       0.075700
     79 N18          3.1140    -3.3420     0.5900 n          1 CB6      -0.501300
     80 N19          3.1140    -3.3420     3.0790 n          1 CB6      -0.501300
     81 C26          2.3170    -4.4740     0.1150 c3         1 CB6       0.288400
     82 C27          2.3170    -4.4740     3.5540 c3         1 CB6       0.288400
     83 C28          3.3740    -2.2190     3.7760 c          1 CB6       0.804500
     84 C29          3.3730    -2.2190    -0.1070 c          1 CB6       0.804500
     85 O8           2.9780    -1.9680     4.8960 o          1 CB6      -0.576500
     86 O9           2.9780    -1.9680    -1.2260 o          1 CB6      -0.576500
     87 H26          2.3000    -4.4420    -0.9860 h2         1 CB6       0.085658
     88 H27          2.8020    -5.4040     0.4440 h2         1 CB6       0.085658
     89 H28          2.3000    -4.4420     4.6560 h2         1 CB6       0.085658
     90 H29          2.8020    -5.4040     3.2250 h2         1 CB6       0.085658
     91 C30          4.1480     2.9190     1.8350 c3         1 CB6       0.239100
     92 C31          4.8560     1.5590     1.8340 c3         1 CB6       0.239100
     93 N20          3.3820     2.8810     0.5910 n          1 CB6      -0.501300
     94 N21          3.3820     2.8810     3.0800 n          1 CB6      -0.501300
     95 H30          4.8370     3.7750     1.8350 h2         1 CB6       0.075700
     96 H31          5.9530     1.6320     1.8340 h2         1 CB6       0.075700
     97 N22          4.3860     0.9530     0.5900 n          1 CB6      -0.501300
     98 N23          4.3850     0.9530     3.0790 n          1 CB6      -0.501300
     99 C32          4.9660    -0.3040     0.1150 c3         1 CB6       0.288400
    100 C33          4.9660    -0.3040     3.5550 c3         1 CB6       0.288400
    101 C34          3.5440     1.7400     3.7760 c          1 CB6       0.804500
    102 C35          3.5440     1.7400    -0.1060 c          1 CB6       0.804500
    103 O10          3.1280     1.5230     4.8960 o          1 CB6      -0.576500
    104 O11          3.1280     1.5230    -1.2260 o          1 CB6      -0.576500
    105 H32          4.9300    -0.3030    -0.9860 h2         1 CB6       0.085658
    106 H33          6.0140    -0.3490     0.4430 h2         1 CB6       0.085658
    107 H34          4.9300    -0.3030     4.6550 h2         1 CB6       0.085658
    108 H35          6.0150    -0.3490     3.2260 h2         1 CB6       0.085658
@<TRIPOS>BOND
     1     1     2 1   
     2     1     3 1   
     3     1     4 1   
     4     1     5 1   
     5     2     6 1   
     6     2     7 1   
     7     2     8 1   
     8     3    12 1   
     9     3    27 1   
    10     4    11 1   
    11     4    28 1   
    12     7     9 1   
    13     7    12 1   
    14     8    10 1   
    15     8    11 1   
    16     9    15 1   
    17     9    16 1   
    18     9    93 1   
    19    10    17 1   
    20    10    18 1   
    21    10    94 1   
    22    11    13 2   
    23    12    14 2   
    24    19    20 1   
    25    19    21 1   
    26    19    22 1   
    27    19    23 1   
    28    20    24 1   
    29    20    25 1   
    30    20    26 1   
    31    21    30 1   
    32    21    45 1   
    33    22    29 1   
    34    22    46 1   
    35    25    27 1   
    36    25    30 1   
    37    26    28 1   
    38    26    29 1   
    39    27    33 1   
    40    27    34 1   
    41    28    35 1   
    42    28    36 1   
    43    29    31 2   
    44    30    32 2   
    45    37    38 1   
    46    37    39 1   
    47    37    40 1   
    48    37    41 1   
    49    38    42 1   
    50    38    43 1   
    51    38    44 1   
    52    39    48 1   
    53    39    63 1   
    54    40    47 1   
    55    40    64 1   
    56    43    45 1   
    57    43    48 1   
    58    44    46 1   
    59    44    47 1   
    60    45    51 1   
    61    45    52 1   
    62    46    53 1   
    63    46    54 1   
    64    47    49 2   
    65    48    50 2   
    66    55    56 1   
    67    55    57 1   
    68    55    58 1   
    69    55    59 1   
    70    56    60 1   
    71    56    61 1   
    72    56    62 1   
    73    57    66 1   
    74    57    81 1   
    75    58    65 1   
    76    58    82 1   
    77    61    63 1   
    78    61    66 1   
    79    62    64 1   
    80    62    65 1   
    81    63    69 1   
    82    63    70 1   
    83    64    71 1   
    84    64    72 1   
    85    65    67 2   
    86    66    68 2   
    87    73    74 1   
    88    73    75 1   
    89    73    76 1   
    90    73    77 1   
    91    74    78 1   
    92    74    79 1   
    93    74    80 1   
    94    75    84 1   
    95    75    99 1   
    96    76    83 1   
    97    76   100 1   
    98    79    81 1   
    99    79    84 1   
   100    80    82 1   
   101    80    83 1   
   102    81    87 1   
   103    81    88 1   
   104    82    89 1   
   105    82    90 1   
   106    83    85 2   
   107    84    86 2   
   108    91    92 1   
   109    91    93 1   
   110    91    94 1   
   111    91    95 1   
   112    92    96 1   
   113    92    97 1   
   114    92    98 1   
   115    93   102 1   
   116    94   101 1   
   117    97    99 1   
   118    97   102 1   
   119    98   100 1   
   120    98   101 1   
   121    99   105 1   
   122    99   106 1   
   123   100   107 1   
   124   100   108 1   
   125   101   103 2   
   126   102   104 2   
@<TRIPOS>SUBSTRUCTURE
     1 CB6         1 TEMP              0 ****  ****    0 ROOT
